Version 4
SHEET 1 880 680
WIRE -736 176 -928 176
WIRE -576 176 -656 176
WIRE -512 176 -576 176
WIRE -368 176 -432 176
WIRE -304 176 -368 176
WIRE -576 208 -576 176
WIRE -368 208 -368 176
WIRE -928 240 -928 176
WIRE -368 352 -368 272
WIRE -928 352 -928 320
WIRE -576 352 -576 272
WIRE -576 352 -928 352
WIRE -368 352 -576 352
WIRE -304 352 -368 352
FLAG -304 352 0
IOPIN -304 352 Out
FLAG -304 176 N002
SYMBOL voltage -928 224 R0
SYMATTR InstName V1
SYMATTR Value PULSE(0 3.3 0.01 0.0 0.0 0.001 0.002 50)
SYMBOL cap -592 208 R0
SYMATTR InstName C1
SYMATTR Value 50µ
SYMATTR SpiceLine Rser=0 Lser=0 mfg="   ---" pn="   ---" type="   ---"
SYMBOL res -640 160 R90
WINDOW 0 0 56 VBottom 2
WINDOW 3 32 56 VTop 2
SYMATTR InstName R1
SYMATTR Value 220
SYMBOL res -416 160 R90
WINDOW 0 0 56 VBottom 2
WINDOW 3 32 56 VTop 2
SYMATTR InstName R2
SYMATTR Value 220
SYMBOL cap -384 208 R0
SYMATTR InstName C2
SYMATTR Value 10µ
TEXT -792 48 Left 2 !.tran 0 100mS 0
